
OS:Version,
  {ad32d634-00dd-4b1a-adbd-240abc060e97}, !- Handle
  1.11.0;                                 !- Version Identifier

OS:ClimateZones,
  {8a3ac41c-57d4-48e4-a48e-1f232e262211}, !- Handle
  ,                                       !- Active Institution
  ,                                       !- Active Year
  ASHRAE,                                 !- Climate Zone Institution Name 1
  ANSI/ASHRAE Standard 169,               !- Climate Zone Document Name 1
  2006,                                   !- Climate Zone Document Year 1
  1A,                                     !- Climate Zone Value 1
  CEC,                                    !- Climate Zone Institution Name 2
  California Climate Zone Descriptions,   !- Climate Zone Document Name 2
  1995,                                   !- Climate Zone Document Year 2
  1;                                      !- Climate Zone Value 2

OS:LifeCycleCost:Parameters,
  {1d4d0f18-e6dd-45c8-896c-f4f2a89e6ae5}, !- Handle
  FEMP,                                   !- Analysis Type
  ,                                       !- Discounting Convention
  ,                                       !- Inflation Approach
  ,                                       !- Real Discount Rate
  ,                                       !- Nominal Discount Rate
  ,                                       !- Inflation
  ,                                       !- Base Date Month
  ,                                       !- Base Date Year
  ,                                       !- Service Date Month
  ,                                       !- Service Date Year
  ,                                       !- Length of Study Period in Years
  ,                                       !- Tax Rate
  ,                                       !- Depreciation Method
  Yes;                                    !- Use NIST Fuel Escalation Rates

OS:YearDescription,
  {c1349a5a-d7e1-4ed9-8e5b-24480649c25c}, !- Handle
  ,                                       !- Calendar Year
  Sunday;                                 !- Day of Week for Start Day

OS:RadianceParameters,
  {8297fd56-36de-4b79-a182-b7636f4ae3e3}, !- Handle
  1,                                      !- Accumulated Rays per Record
  0,                                      !- Direct Threshold
  1,                                      !- Direct Certainty
  1,                                      !- Direct Jitter
  1,                                      !- Direct Pretest
  6,                                      !- Ambient Bounces VMX
  2,                                      !- Ambient Bounces DMX
  4050,                                   !- Ambient Divisions VMX
  512,                                    !- Ambient Divisions DMX
  256,                                    !- Ambient Supersamples
  0.001,                                  !- Limit Weight VMX
  0.001,                                  !- Limit Weight DMX
  500,                                    !- Klems Sampling Density
  146;                                    !- Sky Discretization Resolution

OS:SimulationControl,
  {7c57f4fc-548f-44e7-a438-1feca6a75629}; !- Handle

OS:Sizing:Parameters,
  {ee365675-827e-489e-9a24-0f596988dec4}, !- Handle
  1.25,                                   !- Heating Sizing Factor
  1.15;                                   !- Cooling Sizing Factor

OS:ProgramControl,
  {8a7b938e-cdcb-40af-82b1-79c267c36bae}; !- Handle

OS:Timestep,
  {31824a36-2f0f-4919-a534-cdb00e20d2e0}, !- Handle
  6;                                      !- Number of Timesteps per Hour

OS:OutputControl:ReportingTolerances,
  {275082a5-6cfd-4756-972e-8810ab253e29}; !- Handle

OS:ConvergenceLimits,
  {fcca1605-8471-4f2f-a485-a59582311771}; !- Handle

OS:ShadowCalculation,
  {d875de65-75c7-4d9d-883e-07bd79421b67}, !- Handle
  7,                                      !- Calculation Frequency
  15000;                                  !- Maximum Figures in Shadow Overlap Calculations

OS:SurfaceConvectionAlgorithm:Inside,
  {5add9a33-b760-4e82-a0f9-3ae0e369b9c4}, !- Handle
  TARP;                                   !- Algorithm

OS:SurfaceConvectionAlgorithm:Outside,
  {0257be16-14fc-418e-bc73-178201ccc4ec}, !- Handle
  DOE-2;                                  !- Algorithm

OS:HeatBalanceAlgorithm,
  {5a22c4c4-a6a6-4769-b0a8-f79498f98a6d}, !- Handle
  ConductionTransferFunction,             !- Algorithm
  200;                                    !- Surface Temperature Upper Limit {C}

OS:ZoneAirHeatBalanceAlgorithm,
  {24c912f8-6f7f-4792-8ea0-a8d47b3c41a1}, !- Handle
  AnalyticalSolution;                     !- Algorithm

OS:ZoneAirContaminantBalance,
  {07e7d420-4b9b-4760-8a70-01b36aa6074f}; !- Handle

OS:ZoneCapacitanceMultiplier:ResearchSpecial,
  {91056672-db13-4057-9cb7-7ac44d24bfc5}, !- Handle
  ,                                       !- Temperature Capacity Multiplier
  ,                                       !- Humidity Capacity Multiplier
  ;                                       !- Carbon Dioxide Capacity Multiplier

OS:RunPeriod,
  {17c33f47-c9b9-463a-84bc-12596f349148}, !- Handle
  Run Period 1,                           !- Name
  1,                                      !- Begin Month
  1,                                      !- Begin Day of Month
  12,                                     !- End Month
  31,                                     !- End Day of Month
  ,                                       !- Use Weather File Holidays and Special Days
  ,                                       !- Use Weather File Daylight Saving Period
  ,                                       !- Apply Weekend Holiday Rule
  ,                                       !- Use Weather File Rain Indicators
  ,                                       !- Use Weather File Snow Indicators
  ;                                       !- Number of Times Runperiod to be Repeated

OS:Building,
  {e0ce3521-4e53-4eca-8017-2f1c8dec2b50}, !- Handle
  Building 1,                             !- Name
  ,                                       !- Building Sector Type
  ,                                       !- North Axis {deg}
  ,                                       !- Nominal Floor to Floor Height {m}
  ,                                       !- Space Type Name
  ,                                       !- Default Construction Set Name
  ,                                       !- Default Schedule Set Name
  ,                                       !- Standards Number of Stories
  ,                                       !- Standards Number of Above Ground Stories
  ,                                       !- Standards Building Type
  ,                                       !- Standards Number of Living Units
  ,                                       !- Relocatable
  ;                                       !- Nominal Floor to Ceiling Height {m}

OS:Facility,
  {b6e6be84-f909-42a5-9deb-ef70c0296721}; !- Handle

OS:Site,
  {f38b0e3c-04e1-4822-940e-9b46c436222c}, !- Handle
  Piacenza,                               !- Name
  44.92,                                  !- Latitude {deg}
  9.73,                                   !- Longitude {deg}
  1,                                      !- Time Zone {hr}
  134,                                    !- Elevation {m}
  ;                                       !- Terrain

OS:BuildingStory,
  {fcae9717-61fa-4104-943d-718904da2ff5}, !- Handle
  Building Story 1,                       !- Name
  0,                                      !- Nominal Z Coordinate {m}
  5,                                      !- Nominal Floor to Floor Height {m}
  ,                                       !- Default Construction Set Name
  ,                                       !- Default Schedule Set Name
  {0dd519c6-6048-4df9-b3a6-49874e3f33a4}, !- Group Rendering Name
  ;                                       !- Nominal Floor to Ceiling Height {m}

OS:Space,
  {381c73f2-9dbb-44ea-9511-0f6bbeeb8a3c}, !- Handle
  Space 101,                              !- Name
  {dce34e5a-79a1-4313-931c-578fc060b595}, !- Space Type Name
  {311f80d8-f10a-4f5b-866e-63096c903435}, !- Default Construction Set Name
  {2be58402-48dd-47fa-8a14-2c08f1da522d}, !- Default Schedule Set Name
  ,                                       !- Direction of Relative North {deg}
  18.5970892589527,                       !- X Origin {m}
  5.15376691346552,                       !- Y Origin {m}
  0,                                      !- Z Origin {m}
  {fcae9717-61fa-4104-943d-718904da2ff5}, !- Building Story Name
  {1c32effa-0e30-4ed3-8f70-531428cc5082}, !- Thermal Zone Name
  ,                                       !- Part of Total Floor Area
  ;                                       !- Design Specification Outdoor Air Object Name

OS:Surface,
  {38f258d4-4247-4ca1-a93b-23ea76999626}, !- Handle
  Surface 1,                              !- Name
  Floor,                                  !- Surface Type
  ,                                       !- Construction Name
  {381c73f2-9dbb-44ea-9511-0f6bbeeb8a3c}, !- Space Name
  Ground,                                 !- Outside Boundary Condition
  ,                                       !- Outside Boundary Condition Object
  NoSun,                                  !- Sun Exposure
  NoWind,                                 !- Wind Exposure
  ,                                       !- View Factor to Ground
  ,                                       !- Number of Vertices
  0, 10, 0,                               !- X,Y,Z Vertex 1 {m}
  0, 0, 0,                                !- X,Y,Z Vertex 2 {m}
  -10, 0, 0,                              !- X,Y,Z Vertex 3 {m}
  -10, 10, 0;                             !- X,Y,Z Vertex 4 {m}

OS:Surface,
  {c8bda30b-00bb-4c66-bdbd-269cfcab01a0}, !- Handle
  Surface 2,                              !- Name
  Wall,                                   !- Surface Type
  ,                                       !- Construction Name
  {381c73f2-9dbb-44ea-9511-0f6bbeeb8a3c}, !- Space Name
  Outdoors,                               !- Outside Boundary Condition
  ,                                       !- Outside Boundary Condition Object
  SunExposed,                             !- Sun Exposure
  WindExposed,                            !- Wind Exposure
  ,                                       !- View Factor to Ground
  ,                                       !- Number of Vertices
  -10, 0, 5,                              !- X,Y,Z Vertex 1 {m}
  -10, 0, 0,                              !- X,Y,Z Vertex 2 {m}
  0, 0, 0,                                !- X,Y,Z Vertex 3 {m}
  0, 0, 5;                                !- X,Y,Z Vertex 4 {m}

OS:Surface,
  {931030b7-ecae-4bf4-8fe7-e07e309c9f58}, !- Handle
  Surface 3,                              !- Name
  Wall,                                   !- Surface Type
  ,                                       !- Construction Name
  {381c73f2-9dbb-44ea-9511-0f6bbeeb8a3c}, !- Space Name
  Outdoors,                               !- Outside Boundary Condition
  ,                                       !- Outside Boundary Condition Object
  SunExposed,                             !- Sun Exposure
  WindExposed,                            !- Wind Exposure
  ,                                       !- View Factor to Ground
  ,                                       !- Number of Vertices
  -10, 10, 5,                             !- X,Y,Z Vertex 1 {m}
  -10, 10, 0,                             !- X,Y,Z Vertex 2 {m}
  -10, 0, 0,                              !- X,Y,Z Vertex 3 {m}
  -10, 0, 5;                              !- X,Y,Z Vertex 4 {m}

OS:Surface,
  {9ad65484-bb42-47a1-9cd7-7e248b50ad7d}, !- Handle
  Surface 4,                              !- Name
  Wall,                                   !- Surface Type
  ,                                       !- Construction Name
  {381c73f2-9dbb-44ea-9511-0f6bbeeb8a3c}, !- Space Name
  Surface,                                !- Outside Boundary Condition
  {7b717b98-aafe-4b39-8347-516bfdbefc24}, !- Outside Boundary Condition Object
  NoSun,                                  !- Sun Exposure
  NoWind,                                 !- Wind Exposure
  ,                                       !- View Factor to Ground
  ,                                       !- Number of Vertices
  0, 10, 5,                               !- X,Y,Z Vertex 1 {m}
  0, 10, 0,                               !- X,Y,Z Vertex 2 {m}
  -10, 10, 0,                             !- X,Y,Z Vertex 3 {m}
  -10, 10, 5;                             !- X,Y,Z Vertex 4 {m}

OS:Surface,
  {41d7416c-90eb-4930-b34b-1fba4d162e34}, !- Handle
  Surface 5,                              !- Name
  Wall,                                   !- Surface Type
  ,                                       !- Construction Name
  {381c73f2-9dbb-44ea-9511-0f6bbeeb8a3c}, !- Space Name
  Outdoors,                               !- Outside Boundary Condition
  ,                                       !- Outside Boundary Condition Object
  SunExposed,                             !- Sun Exposure
  WindExposed,                            !- Wind Exposure
  ,                                       !- View Factor to Ground
  ,                                       !- Number of Vertices
  0, 0, 5,                                !- X,Y,Z Vertex 1 {m}
  0, 0, 0,                                !- X,Y,Z Vertex 2 {m}
  0, 10, 0,                               !- X,Y,Z Vertex 3 {m}
  0, 10, 5;                               !- X,Y,Z Vertex 4 {m}

OS:Surface,
  {c59552ed-5cf7-4b12-9928-e9aa605296c6}, !- Handle
  Surface 6,                              !- Name
  RoofCeiling,                            !- Surface Type
  ,                                       !- Construction Name
  {381c73f2-9dbb-44ea-9511-0f6bbeeb8a3c}, !- Space Name
  Outdoors,                               !- Outside Boundary Condition
  ,                                       !- Outside Boundary Condition Object
  SunExposed,                             !- Sun Exposure
  WindExposed,                            !- Wind Exposure
  ,                                       !- View Factor to Ground
  ,                                       !- Number of Vertices
  0, 0, 5,                                !- X,Y,Z Vertex 1 {m}
  0, 10, 5,                               !- X,Y,Z Vertex 2 {m}
  -10, 10, 5,                             !- X,Y,Z Vertex 3 {m}
  -10, 0, 5;                              !- X,Y,Z Vertex 4 {m}

OS:Space,
  {a90c6b61-8923-4039-90a9-051c5ccde2e4}, !- Handle
  Space 103,                              !- Name
  {767adebe-faff-49eb-be88-82b3123555cd}, !- Space Type Name
  {6e1263a5-71c8-4e35-9381-06ff454f601e}, !- Default Construction Set Name
  {2be58402-48dd-47fa-8a14-2c08f1da522d}, !- Default Schedule Set Name
  ,                                       !- Direction of Relative North {deg}
  38.5970892589527,                       !- X Origin {m}
  5.15376691346552,                       !- Y Origin {m}
  0,                                      !- Z Origin {m}
  {fcae9717-61fa-4104-943d-718904da2ff5}, !- Building Story Name
  {1c32effa-0e30-4ed3-8f70-531428cc5082}, !- Thermal Zone Name
  ,                                       !- Part of Total Floor Area
  ;                                       !- Design Specification Outdoor Air Object Name

OS:Surface,
  {3a6e3f5a-776a-4ae4-a070-573e32778f7a}, !- Handle
  Surface 13,                             !- Name
  Floor,                                  !- Surface Type
  ,                                       !- Construction Name
  {a90c6b61-8923-4039-90a9-051c5ccde2e4}, !- Space Name
  Ground,                                 !- Outside Boundary Condition
  ,                                       !- Outside Boundary Condition Object
  NoSun,                                  !- Sun Exposure
  NoWind,                                 !- Wind Exposure
  ,                                       !- View Factor to Ground
  ,                                       !- Number of Vertices
  0, 10, 0,                               !- X,Y,Z Vertex 1 {m}
  0, 0, 0,                                !- X,Y,Z Vertex 2 {m}
  -10, 0, 0,                              !- X,Y,Z Vertex 3 {m}
  -10, 10, 0;                             !- X,Y,Z Vertex 4 {m}

OS:Surface,
  {0c0396d7-4019-46ce-9622-ba7b7a0685a4}, !- Handle
  Surface 14,                             !- Name
  Wall,                                   !- Surface Type
  ,                                       !- Construction Name
  {a90c6b61-8923-4039-90a9-051c5ccde2e4}, !- Space Name
  Outdoors,                               !- Outside Boundary Condition
  ,                                       !- Outside Boundary Condition Object
  SunExposed,                             !- Sun Exposure
  WindExposed,                            !- Wind Exposure
  ,                                       !- View Factor to Ground
  ,                                       !- Number of Vertices
  -10, 0, 5,                              !- X,Y,Z Vertex 1 {m}
  -10, 0, 0,                              !- X,Y,Z Vertex 2 {m}
  0, 0, 0,                                !- X,Y,Z Vertex 3 {m}
  0, 0, 5;                                !- X,Y,Z Vertex 4 {m}

OS:Surface,
  {f673ce01-f8d2-4ee5-82ab-df9e16f24aa0}, !- Handle
  Surface 15,                             !- Name
  Wall,                                   !- Surface Type
  ,                                       !- Construction Name
  {a90c6b61-8923-4039-90a9-051c5ccde2e4}, !- Space Name
  Outdoors,                               !- Outside Boundary Condition
  ,                                       !- Outside Boundary Condition Object
  SunExposed,                             !- Sun Exposure
  WindExposed,                            !- Wind Exposure
  ,                                       !- View Factor to Ground
  ,                                       !- Number of Vertices
  -10, 10, 5,                             !- X,Y,Z Vertex 1 {m}
  -10, 10, 0,                             !- X,Y,Z Vertex 2 {m}
  -10, 0, 0,                              !- X,Y,Z Vertex 3 {m}
  -10, 0, 5;                              !- X,Y,Z Vertex 4 {m}

OS:Surface,
  {eb47a98d-cd68-4afb-b987-744ad9b18ec1}, !- Handle
  Surface 16,                             !- Name
  Wall,                                   !- Surface Type
  ,                                       !- Construction Name
  {a90c6b61-8923-4039-90a9-051c5ccde2e4}, !- Space Name
  Outdoors,                               !- Outside Boundary Condition
  ,                                       !- Outside Boundary Condition Object
  SunExposed,                             !- Sun Exposure
  WindExposed,                            !- Wind Exposure
  ,                                       !- View Factor to Ground
  ,                                       !- Number of Vertices
  0, 10, 5,                               !- X,Y,Z Vertex 1 {m}
  0, 10, 0,                               !- X,Y,Z Vertex 2 {m}
  -10, 10, 0,                             !- X,Y,Z Vertex 3 {m}
  -10, 10, 5;                             !- X,Y,Z Vertex 4 {m}

OS:Surface,
  {86ba4413-3aba-4612-a05e-72cb50759011}, !- Handle
  Surface 17,                             !- Name
  Wall,                                   !- Surface Type
  ,                                       !- Construction Name
  {a90c6b61-8923-4039-90a9-051c5ccde2e4}, !- Space Name
  Surface,                                !- Outside Boundary Condition
  {1c481e33-5f91-42ac-8830-97b4ddd87d07}, !- Outside Boundary Condition Object
  NoSun,                                  !- Sun Exposure
  NoWind,                                 !- Wind Exposure
  ,                                       !- View Factor to Ground
  ,                                       !- Number of Vertices
  0, 0, 5,                                !- X,Y,Z Vertex 1 {m}
  0, 0, 0,                                !- X,Y,Z Vertex 2 {m}
  0, 10, 0,                               !- X,Y,Z Vertex 3 {m}
  0, 10, 5;                               !- X,Y,Z Vertex 4 {m}

OS:Surface,
  {5f0c17eb-ba45-48d8-ad97-9afd50c45536}, !- Handle
  Surface 18,                             !- Name
  RoofCeiling,                            !- Surface Type
  ,                                       !- Construction Name
  {a90c6b61-8923-4039-90a9-051c5ccde2e4}, !- Space Name
  Outdoors,                               !- Outside Boundary Condition
  ,                                       !- Outside Boundary Condition Object
  SunExposed,                             !- Sun Exposure
  WindExposed,                            !- Wind Exposure
  ,                                       !- View Factor to Ground
  ,                                       !- Number of Vertices
  0, 0, 5,                                !- X,Y,Z Vertex 1 {m}
  0, 10, 5,                               !- X,Y,Z Vertex 2 {m}
  -10, 10, 5,                             !- X,Y,Z Vertex 3 {m}
  -10, 0, 5;                              !- X,Y,Z Vertex 4 {m}

OS:Space,
  {067b45ea-82cd-4081-8a6a-ec8fec1a55fe}, !- Handle
  Space 104,                              !- Name
  {dce34e5a-79a1-4313-931c-578fc060b595}, !- Space Type Name
  {d7787855-08df-43ad-a8d0-f1708bf5b06b}, !- Default Construction Set Name
  {2be58402-48dd-47fa-8a14-2c08f1da522d}, !- Default Schedule Set Name
  ,                                       !- Direction of Relative North {deg}
  38.5970892589527,                       !- X Origin {m}
  5.15376691346552,                       !- Y Origin {m}
  0,                                      !- Z Origin {m}
  {fcae9717-61fa-4104-943d-718904da2ff5}, !- Building Story Name
  {1c32effa-0e30-4ed3-8f70-531428cc5082}, !- Thermal Zone Name
  ,                                       !- Part of Total Floor Area
  ;                                       !- Design Specification Outdoor Air Object Name

OS:Surface,
  {25b52819-90f7-4354-a7e7-afaa602c70a8}, !- Handle
  Surface 19,                             !- Name
  Floor,                                  !- Surface Type
  ,                                       !- Construction Name
  {067b45ea-82cd-4081-8a6a-ec8fec1a55fe}, !- Space Name
  Ground,                                 !- Outside Boundary Condition
  ,                                       !- Outside Boundary Condition Object
  NoSun,                                  !- Sun Exposure
  NoWind,                                 !- Wind Exposure
  ,                                       !- View Factor to Ground
  ,                                       !- Number of Vertices
  10, 10, 0,                              !- X,Y,Z Vertex 1 {m}
  10, 0, 0,                               !- X,Y,Z Vertex 2 {m}
  0, 0, 0,                                !- X,Y,Z Vertex 3 {m}
  0, 10, 0;                               !- X,Y,Z Vertex 4 {m}

OS:Surface,
  {1c481e33-5f91-42ac-8830-97b4ddd87d07}, !- Handle
  Surface 20,                             !- Name
  Wall,                                   !- Surface Type
  ,                                       !- Construction Name
  {067b45ea-82cd-4081-8a6a-ec8fec1a55fe}, !- Space Name
  Surface,                                !- Outside Boundary Condition
  {86ba4413-3aba-4612-a05e-72cb50759011}, !- Outside Boundary Condition Object
  NoSun,                                  !- Sun Exposure
  NoWind,                                 !- Wind Exposure
  ,                                       !- View Factor to Ground
  ,                                       !- Number of Vertices
  0, 10, 5,                               !- X,Y,Z Vertex 1 {m}
  0, 10, 0,                               !- X,Y,Z Vertex 2 {m}
  0, 0, 0,                                !- X,Y,Z Vertex 3 {m}
  0, 0, 5;                                !- X,Y,Z Vertex 4 {m}

OS:Surface,
  {918ed763-9f89-4df0-a77a-fec756c59899}, !- Handle
  Surface 21,                             !- Name
  Wall,                                   !- Surface Type
  ,                                       !- Construction Name
  {067b45ea-82cd-4081-8a6a-ec8fec1a55fe}, !- Space Name
  Outdoors,                               !- Outside Boundary Condition
  ,                                       !- Outside Boundary Condition Object
  SunExposed,                             !- Sun Exposure
  WindExposed,                            !- Wind Exposure
  ,                                       !- View Factor to Ground
  ,                                       !- Number of Vertices
  10, 10, 5,                              !- X,Y,Z Vertex 1 {m}
  10, 10, 0,                              !- X,Y,Z Vertex 2 {m}
  0, 10, 0,                               !- X,Y,Z Vertex 3 {m}
  0, 10, 5;                               !- X,Y,Z Vertex 4 {m}

OS:Surface,
  {cb957eee-7d44-49ca-a81d-2e85683ea1d0}, !- Handle
  Surface 22,                             !- Name
  Wall,                                   !- Surface Type
  ,                                       !- Construction Name
  {067b45ea-82cd-4081-8a6a-ec8fec1a55fe}, !- Space Name
  Surface,                                !- Outside Boundary Condition
  {7c119dd1-502b-4488-b448-95ff0be502da}, !- Outside Boundary Condition Object
  NoSun,                                  !- Sun Exposure
  NoWind,                                 !- Wind Exposure
  ,                                       !- View Factor to Ground
  ,                                       !- Number of Vertices
  10, 0, 5,                               !- X,Y,Z Vertex 1 {m}
  10, 0, 0,                               !- X,Y,Z Vertex 2 {m}
  10, 10, 0,                              !- X,Y,Z Vertex 3 {m}
  10, 10, 5;                              !- X,Y,Z Vertex 4 {m}

OS:Surface,
  {b91aaf22-118b-4f17-8d75-cd07a615a313}, !- Handle
  Surface 23,                             !- Name
  Wall,                                   !- Surface Type
  ,                                       !- Construction Name
  {067b45ea-82cd-4081-8a6a-ec8fec1a55fe}, !- Space Name
  Outdoors,                               !- Outside Boundary Condition
  ,                                       !- Outside Boundary Condition Object
  SunExposed,                             !- Sun Exposure
  WindExposed,                            !- Wind Exposure
  ,                                       !- View Factor to Ground
  ,                                       !- Number of Vertices
  0, 0, 5,                                !- X,Y,Z Vertex 1 {m}
  0, 0, 0,                                !- X,Y,Z Vertex 2 {m}
  10, 0, 0,                               !- X,Y,Z Vertex 3 {m}
  10, 0, 5;                               !- X,Y,Z Vertex 4 {m}

OS:Surface,
  {8db07d45-3392-4ca9-afb4-84fd045edc4d}, !- Handle
  Surface 24,                             !- Name
  RoofCeiling,                            !- Surface Type
  ,                                       !- Construction Name
  {067b45ea-82cd-4081-8a6a-ec8fec1a55fe}, !- Space Name
  Outdoors,                               !- Outside Boundary Condition
  ,                                       !- Outside Boundary Condition Object
  SunExposed,                             !- Sun Exposure
  WindExposed,                            !- Wind Exposure
  ,                                       !- View Factor to Ground
  ,                                       !- Number of Vertices
  10, 0, 5,                               !- X,Y,Z Vertex 1 {m}
  10, 10, 5,                              !- X,Y,Z Vertex 2 {m}
  0, 10, 5,                               !- X,Y,Z Vertex 3 {m}
  0, 0, 5;                                !- X,Y,Z Vertex 4 {m}

OS:Space,
  {65f0878b-b47d-4dad-99ec-45b726d1383e}, !- Handle
  Space 105,                              !- Name
  {8451e057-7c23-4b2c-a7e1-440cbab9dc07}, !- Space Type Name
  {ec62aa24-d5fb-45b0-bf9f-40abd65d1f99}, !- Default Construction Set Name
  {441b875c-8c77-4f72-a9f4-c27e5404e1cc}, !- Default Schedule Set Name
  ,                                       !- Direction of Relative North {deg}
  58.5970892589527,                       !- X Origin {m}
  5.15376691346552,                       !- Y Origin {m}
  0,                                      !- Z Origin {m}
  {fcae9717-61fa-4104-943d-718904da2ff5}, !- Building Story Name
  {19b2e422-4ceb-4f3e-8ef7-6ed0cad4d284}, !- Thermal Zone Name
  ,                                       !- Part of Total Floor Area
  ;                                       !- Design Specification Outdoor Air Object Name

OS:Surface,
  {4356b020-dca6-4d9b-b07d-6f700031cb83}, !- Handle
  Surface 25,                             !- Name
  Floor,                                  !- Surface Type
  ,                                       !- Construction Name
  {65f0878b-b47d-4dad-99ec-45b726d1383e}, !- Space Name
  Ground,                                 !- Outside Boundary Condition
  ,                                       !- Outside Boundary Condition Object
  NoSun,                                  !- Sun Exposure
  NoWind,                                 !- Wind Exposure
  ,                                       !- View Factor to Ground
  ,                                       !- Number of Vertices
  0, 30, 0,                               !- X,Y,Z Vertex 1 {m}
  0, 0, 0,                                !- X,Y,Z Vertex 2 {m}
  -9.99999999999999, 0, 0,                !- X,Y,Z Vertex 3 {m}
  -10, 30, 0;                             !- X,Y,Z Vertex 4 {m}

OS:Surface,
  {c0bb3d41-4031-41a8-b949-b2c0498fb770}, !- Handle
  Surface 26,                             !- Name
  Wall,                                   !- Surface Type
  ,                                       !- Construction Name
  {65f0878b-b47d-4dad-99ec-45b726d1383e}, !- Space Name
  Outdoors,                               !- Outside Boundary Condition
  ,                                       !- Outside Boundary Condition Object
  SunExposed,                             !- Sun Exposure
  WindExposed,                            !- Wind Exposure
  ,                                       !- View Factor to Ground