
Version,
  9.0;                                    !- Version Identifier

Timestep,
  6;                                      !- Number of Timesteps per Hour

LifeCycleCost:Parameters,
  Life Cycle Cost Parameters,             !- Name
  EndOfYear,                              !- Discounting Convention
  ConstantDollar,                         !- Inflation Approach
  0.03,                                   !- Real Discount Rate
  ,                                       !- Nominal Discount Rate
  ,                                       !- Inflation
  ,                                       !- Base Date Month
  2011,                                   !- Base Date Year
  ,                                       !- Service Date Month
  2011,                                   !- Service Date Year
  25,                                     !- Length of Study Period in Years
  ,                                       !- Tax rate
  None;                                   !- Depreciation Method

LifeCycleCost:UsePriceEscalation,
  U.S. Avg  Commercial-Electricity,       !- LCC Price Escalation Name
  Electricity,                            !- Resource
  2011,                                   !- Escalation Start Year
  January,                                !- Escalation Start Month
  0.9838,                                 !- Year Escalation 1
  0.9730,                                 !- Year Escalation 2
  0.9632,                                 !- Year Escalation 3
  0.9611,                                 !- Year Escalation 4
  0.9571,                                 !- Year Escalation 5
  0.9553,                                 !- Year Escalation 6
  0.9539,                                 !- Year Escalation 7
  0.9521,                                 !- Year Escalation 8
  0.9546,                                 !- Year Escalation 9
  0.9550,                                 !- Year Escalation 10
  0.9553,                                 !- Year Escalation 11
  0.9564,                                 !- Year Escalation 12
  0.9575,                                 !- Year Escalation 13
  0.9596,                                 !- Year Escalation 14
  0.9618,                                 !- Year Escalation 15
  0.9614,                                 !- Year Escalation 16
  0.9618,                                 !- Year Escalation 17
  0.9618,                                 !- Year Escalation 18
  0.9593,                                 !- Year Escalation 19
  0.9589,                                 !- Year Escalation 20
  0.9607,                                 !- Year Escalation 21
  0.9625,                                 !- Year Escalation 22
  0.9650,                                 !- Year Escalation 23
  0.9708,                                 !- Year Escalation 24
  0.9751,                                 !- Year Escalation 25
  0.9762,                                 !- Year Escalation 26
  0.9766,                                 !- Year Escalation 27
  0.9766,                                 !- Year Escalation 28
  0.9769,                                 !- Year Escalation 29
  0.9773;                                 !- Year Escalation 30

LifeCycleCost:UsePriceEscalation,
  U.S. Avg  Commercial-Distillate Oil,    !- LCC Price Escalation Name
  FuelOil#1,                              !- Resource
  2011,                                   !- Escalation Start Year
  January,                                !- Escalation Start Month
  0.9714,                                 !- Year Escalation 1
  0.9730,                                 !- Year Escalation 2
  0.9942,                                 !- Year Escalation 3
  1.0164,                                 !- Year Escalation 4
  1.0541,                                 !- Year Escalation 5
  1.0928,                                 !- Year Escalation 6
  1.1267,                                 !- Year Escalation 7
  1.1580,                                 !- Year Escalation 8
  1.1792,                                 !- Year Escalation 9
  1.1967,                                 !- Year Escalation 10
  1.2200,                                 !- Year Escalation 11
  1.2333,                                 !- Year Escalation 12
  1.2566,                                 !- Year Escalation 13
  1.2709,                                 !- Year Escalation 14
  1.2826,                                 !- Year Escalation 15
  1.2985,                                 !- Year Escalation 16
  1.3102,                                 !- Year Escalation 17
  1.3250,                                 !- Year Escalation 18
  1.3261,                                 !- Year Escalation 19
  1.3282,                                 !- Year Escalation 20
  1.3324,                                 !- Year Escalation 21
  1.3356,                                 !- Year Escalation 22
  1.3431,                                 !- Year Escalation 23
  1.3510,                                 !- Year Escalation 24
  1.3568,                                 !- Year Escalation 25
  1.3606,                                 !- Year Escalation 26
  1.3637,                                 !- Year Escalation 27
  1.3674,                                 !- Year Escalation 28
  1.3706,                                 !- Year Escalation 29
  1.3743;                                 !- Year Escalation 30

LifeCycleCost:UsePriceEscalation,
  U.S. Avg  Commercial-Residual Oil,      !- LCC Price Escalation Name
  FuelOil#2,                              !- Resource
  2011,                                   !- Escalation Start Year
  January,                                !- Escalation Start Month
  0.8469,                                 !- Year Escalation 1
  0.8257,                                 !- Year Escalation 2
  0.8681,                                 !- Year Escalation 3
  0.8988,                                 !- Year Escalation 4
  0.9289,                                 !- Year Escalation 5
  0.9604,                                 !- Year Escalation 6
  0.9897,                                 !- Year Escalation 7
  1.0075,                                 !- Year Escalation 8
  1.0314,                                 !- Year Escalation 9
  1.0554,                                 !- Year Escalation 10
  1.0861,                                 !- Year Escalation 11
  1.1278,                                 !- Year Escalation 12
  1.1497,                                 !- Year Escalation 13
  1.1620,                                 !- Year Escalation 14
  1.1743,                                 !- Year Escalation 15
  1.1852,                                 !- Year Escalation 16
  1.1948,                                 !- Year Escalation 17
  1.2037,                                 !- Year Escalation 18
  1.2071,                                 !- Year Escalation 19
  1.2119,                                 !- Year Escalation 20
  1.2139,                                 !- Year Escalation 21
  1.2194,                                 !- Year Escalation 22
  1.2276,                                 !- Year Escalation 23
  1.2365,                                 !- Year Escalation 24
  1.2420,                                 !- Year Escalation 25
  1.2461,                                 !- Year Escalation 26
  1.2509,                                 !- Year Escalation 27
  1.2550,                                 !- Year Escalation 28
  1.2591,                                 !- Year Escalation 29
  1.2638;                                 !- Year Escalation 30

LifeCycleCost:UsePriceEscalation,
  U.S. Avg  Commercial-Natural gas,       !- LCC Price Escalation Name
  NaturalGas,                             !- Resource
  2011,                                   !- Escalation Start Year
  January,                                !- Escalation Start Month
  0.9823,                                 !- Year Escalation 1
  0.9557,                                 !- Year Escalation 2
  0.9279,                                 !- Year Escalation 3
  0.9257,                                 !- Year Escalation 4
  0.9346,                                 !- Year Escalation 5
  0.9412,                                 !- Year Escalation 6
  0.9512,                                 !- Year Escalation 7
  0.9645,                                 !- Year Escalation 8
  0.9856,                                 !- Year Escalation 9
  1.0067,                                 !- Year Escalation 10
  1.0222,                                 !- Year Escalation 11
  1.0410,                                 !- Year Escalation 12
  1.0610,                                 !- Year Escalation 13
  1.0787,                                 !- Year Escalation 14
  1.0942,                                 !- Year Escalation 15
  1.1098,                                 !- Year Escalation 16
  1.1220,                                 !- Year Escalation 17
  1.1308,                                 !- Year Escalation 18
  1.1386,                                 !- Year Escalation 19
  1.1486,                                 !- Year Escalation 20
  1.1619,                                 !- Year Escalation 21
  1.1763,                                 !- Year Escalation 22
  1.1918,                                 !- Year Escalation 23
  1.2118,                                 !- Year Escalation 24
  1.2284,                                 !- Year Escalation 25
  1.2439,                                 !- Year Escalation 26
  1.2605,                                 !- Year Escalation 27
  1.2772,                                 !- Year Escalation 28
  1.2938,                                 !- Year Escalation 29
  1.3115;                                 !- Year Escalation 30

LifeCycleCost:UsePriceEscalation,
  U.S. Avg  Commercial-Coal,              !- LCC Price Escalation Name
  Coal,                                   !- Resource
  2011,                                   !- Escalation Start Year
  January,                                !- Escalation Start Month
  0.9970,                                 !- Year Escalation 1
  1.0089,                                 !- Year Escalation 2
  1.0089,                                 !- Year Escalation 3
  0.9941,                                 !- Year Escalation 4
  0.9941,                                 !- Year Escalation 5
  1.0000,                                 !- Year Escalation 6
  1.0030,                                 !- Year Escalation 7
  1.0059,                                 !- Year Escalation 8
  1.0089,                                 !- Year Escalation 9
  1.0119,                                 !- Year Escalation 10
  1.0148,                                 !- Year Escalation 11
  1.0178,                                 !- Year Escalation 12
  1.0208,                                 !- Year Escalation 13
  1.0267,                                 !- Year Escalation 14
  1.0297,                                 !- Year Escalation 15
  1.0356,                                 !- Year Escalation 16
  1.0415,                                 !- Year Escalation 17
  1.0534,                                 !- Year Escalation 18
  1.0564,                                 !- Year Escalation 19
  1.0593,                                 !- Year Escalation 20
  1.0653,                                 !- Year Escalation 21
  1.0712,                                 !- Year Escalation 22
  1.0742,                                 !- Year Escalation 23
  1.0801,                                 !- Year Escalation 24
  1.0831,                                 !- Year Escalation 25
  1.0831,                                 !- Year Escalation 26
  1.0861,                                 !- Year Escalation 27
  1.0890,                                 !- Year Escalation 28
  1.0920,                                 !- Year Escalation 29
  1.0950;                                 !- Year Escalation 30

Building,
  Building 1,                             !- Name
  ,                                       !- North Axis {deg}
  ,                                       !- Terrain
  ,                                       !- Loads Convergence Tolerance Value
  ,                                       !- Temperature Convergence Tolerance Value {deltaC}
  ,                                       !- Solar Distribution
  ,                                       !- Maximum Number of Warmup Days
  ;                                       !- Minimum Number of Warmup Days

Zone,
  Thermal Zone 1,                         !- Name
  ,                                       !- Direction of Relative North {deg}
  55.0125071807981,                       !- X Origin {m}
  2.11819726612381,                       !- Y Origin {m}
  0,                                      !- Z Origin {m}
  ,                                       !- Type
  ,                                       !- Multiplier
  ,                                       !- Ceiling Height {m}
  ,                                       !- Volume {m3}
  ,                                       !- Floor Area {m2}
  ,                                       !- Zone Inside Convection Algorithm
  ;                                       !- Zone Outside Convection Algorithm

BuildingSurface:Detailed,
  Surface 10,                             !- Name
  Wall,                                   !- Surface Type
  Roma_WallBestCase,                      !- Construction Name
  Thermal Zone 1,                         !- Zone Name
  Outdoors,                               !- Outside Boundary Condition
  ,                                       !- Outside Boundary Condition Object
  SunExposed,                             !- Sun Exposure
  WindExposed,                            !- Wind Exposure
  ,                                       !- View Factor to Ground
  ,                                       !- Number of Vertices
  -11.49, 0, 4,                           !- X,Y,Z Vertex 1 {m}
  -11.49, 0, 0,                           !- X,Y,Z Vertex 2 {m}
  0, 0, 0,                                !- X,Y,Z Vertex 3 {m}
  0, 0, 4;                                !- X,Y,Z Vertex 4 {m}

BuildingSurface:Detailed,
  Surface 11,                             !- Name
  Wall,                                   !- Surface Type
  Interior Wall,                          !- Construction Name
  Thermal Zone 1,                         !- Zone Name
  Surface,                                !- Outside Boundary Condition
  Surface 6,                              !- Outside Boundary Condition Object
  NoSun,                                  !- Sun Exposure
  NoWind,                                 !- Wind Exposure
  ,                                       !- View Factor to Ground
  ,                                       !- Number of Vertices
  -11.49, 11.49, 4,                       !- X,Y,Z Vertex 1 {m}
  -11.49, 11.49, 0,                       !- X,Y,Z Vertex 2 {m}
  -11.49, 0, 0,                           !- X,Y,Z Vertex 3 {m}
  -11.49, 0, 4;                           !- X,Y,Z Vertex 4 {m}

BuildingSurface:Detailed,
  Surface 12,                             !- Name
  Wall,                                   !- Surface Type
  Roma_WallBestCase,                      !- Construction Name
  Thermal Zone 1,                         !- Zone Name
  Outdoors,                               !- Outside Boundary Condition
  ,                                       !- Outside Boundary Condition Object
  SunExposed,                             !- Sun Exposure
  WindExposed,                            !- Wind Exposure
  ,                                       !- View Factor to Ground
  ,                                       !- Number of Vertices
  -9.99025405139161, 11.3917014571851, 4, !- X,Y,Z Vertex 1 {m}
  -9.99025405139161, 11.3917014571851, 0, !- X,Y,Z Vertex 2 {m}
  -11.49, 11.49, 0,                       !- X,Y,Z Vertex 3 {m}
  -11.49, 11.49, 4;                       !- X,Y,Z Vertex 4 {m}

FenestrationSurface:Detailed,
  Sub Surface 18,                         !- Name
  Window,                                 !- Surface Type
  Roma_WindowsBestCase,                   !- Construction Name
  Surface 12,                             !- Building Surface Name
  ,                                       !- Outside Boundary Condition Object
  ,                                       !- View Factor to Ground
  ,                                       !- Frame and Divider Name
  ,                                       !- Multiplier
  ,                                       !- Number of Vertices
  -10.0155996680419, 11.3933626966675, 2.41597164304703, !- X,Y,Z Vertex 1 {m}
  -10.0155996680419, 11.3933626966675, 0.76, !- X,Y,Z Vertex 2 {m}
  -11.4646543833497, 11.4883387605176, 0.76, !- X,Y,Z Vertex 3 {m}
  -11.4646543833497, 11.4883387605176, 2.41597164304703; !- X,Y,Z Vertex 4 {m}

BuildingSurface:Detailed,
  Surface 13,                             !- Name
  Wall,                                   !- Surface Type
  Roma_WallBestCase,                      !- Construction Name
  Thermal Zone 1,                         !- Zone Name
  Outdoors,                               !- Outside Boundary Condition
  ,                                       !- Outside Boundary Condition Object
  SunExposed,                             !- Sun Exposure
  WindExposed,                            !- Wind Exposure
  ,                                       !- View Factor to Ground
  ,                                       !- Number of Vertices
  -8.51616917177203, 11.0984877440614, 4, !- X,Y,Z Vertex 1 {m}
  -8.51616917177203, 11.0984877440614, 0, !- X,Y,Z Vertex 2 {m}
  -9.99025405139161, 11.3917014571851, 0, !- X,Y,Z Vertex 3 {m}
  -9.99025405139161, 11.3917014571851, 4; !- X,Y,Z Vertex 4 {m}

FenestrationSurface:Detailed,
  Sub Surface 17,                         !- Name
  Window,                                 !- Surface Type
  Roma_WindowsBestCase,                   !- Construction Name
  Surface 13,                             !- Building Surface Name
  ,                                       !- Outside Boundary Condition Object
  ,                                       !- View Factor to Ground
  ,                                       !- Frame and Divider Name
  ,                                       !- Multiplier
  ,                                       !- Number of Vertices
  -8.54108111789427, 11.1034430382406, 2.41597164304703, !- X,Y,Z Vertex 1 {m}
  -8.54108111789427, 11.1034430382406, 0.76, !- X,Y,Z Vertex 2 {m}
  -9.96534210526937, 11.3867461630059, 0.76, !- X,Y,Z Vertex 3 {m}
  -9.96534210526937, 11.3867461630059, 2.41597164304703; !- X,Y,Z Vertex 4 {m}

BuildingSurface:Detailed,
  Surface 14,                             !- Name
  Wall,                                   !- Surface Type
  Roma_WallBestCase,                      !- Construction Name
  Thermal Zone 1,                         !- Zone Name
  Outdoors,                               !- Outside Boundary Condition
  ,                                       !- Outside Boundary Condition Object
  SunExposed,                             !- Sun Exposure
  WindExposed,                            !- Wind Exposure
  ,                                       !- View Factor to Ground
  ,                                       !- Number of Vertices
  -7.09296736212512, 10.6153758285547, 4, !- X,Y,Z Vertex 1 {m}
  -7.09296736212512, 10.6153758285547, 0, !- X,Y,Z Vertex 2 {m}
  -8.51616917177203, 11.0984877440614, 0, !- X,Y,Z Vertex 3 {m}
  -8.51616917177203, 11.0984877440614, 4; !- X,Y,Z Vertex 4 {m}

FenestrationSurface:Detailed,
  Sub Surface 16,                         !- Name
  Window,                                 !- Surface Type
  Roma_WindowsBestCase,                   !- Construction Name
  Surface 14,                             !- Building Surface Name
  ,                                       !- Outside Boundary Condition Object
  ,                                       !- View Factor to Ground
  ,                                       !- Frame and Divider Name
  ,                                       !- Multiplier
  ,                                       !- Number of Vertices
  -7.11701938741429, 10.6235403909734, 2.41597164304703, !- X,Y,Z Vertex 1 {m}
  -7.11701938741429, 10.6235403909734, 0.76, !- X,Y,Z Vertex 2 {m}
  -8.49211714648285, 11.0903231816427, 0.76, !- X,Y,Z Vertex 3 {m}
  -8.49211714648285, 11.0903231816427, 2.41597164304703; !- X,Y,Z Vertex 4 {m}

BuildingSurface:Detailed,
  Surface 15,                             !- Name
  Wall,                                   !- Surface Type
  Roma_WallBestCase,                      !- Construction Name
  Thermal Zone 1,                         !- Zone Name
  Outdoors,                               !- Outside Boundary Condition
  ,                                       !- Outside Boundary Condition Object
  SunExposed,                             !- Sun Exposure
  WindExposed,                            !- Wind Exposure
  ,                                       !- View Factor to Ground
  ,                                       !- Number of Vertices
  -5.745, 9.9506318894832, 4,             !- X,Y,Z Vertex 1 {m}
  -5.745, 9.9506318894832, 0,             !- X,Y,Z Vertex 2 {m}
  -7.09296736212512, 10.6153758285547, 0, !- X,Y,Z Vertex 3 {m}
  -7.09296736212512, 10.6153758285547, 4; !- X,Y,Z Vertex 4 {m}

FenestrationSurface:Detailed,
  Sub Surface 15,                         !- Name
  Window,                                 !- Surface Type
  Roma_WindowsBestCase,                   !- Construction Name
  Surface 15,                             !- Building Surface Name
  ,                                       !- Outside Boundary Condition Object
  ,                                       !- View Factor to Ground
  ,                                       !- Frame and Divider Name
  ,                                       !- Multiplier
  ,                                       !- Number of Vertices
  -5.76778056763493, 9.96186602221475, 2.41597164304703, !- X,Y,Z Vertex 1 {m}
  -5.76778056763493, 9.96186602221475, 0.76, !- X,Y,Z Vertex 2 {m}
  -7.07018679449018, 10.6041416958231, 0.76, !- X,Y,Z Vertex 3 {m}
  -7.07018679449018, 10.6041416958231, 2.41597164304703; !- X,Y,Z Vertex 4 {m}

BuildingSurface:Detailed,
  Surface 16,                             !- Name
  Wall,                                   !- Surface Type
  Roma_WallBestCase,                      !- Construction Name
  Thermal Zone 1,                         !- Zone Name
  Outdoors,                               !- Outside Boundary Condition
  ,                                       !- Outside Boundary Condition Object
  SunExposed,                             !- Sun Exposure
  WindExposed,                            !- Wind Exposure
  ,                                       !- View Factor to Ground
  ,                                       !- Number of Vertices
  -4.49533118068979, 9.11562987994629, 4, !- X,Y,Z Vertex 1 {m}
  -4.49533118068979, 9.11562987994629, 0, !- X,Y,Z Vertex 2 {m}
  -5.745, 9.9506318894832, 0,             !- X,Y,Z Vertex 3 {m}
  -5.745, 9.9506318894832, 4;             !- X,Y,Z Vertex 4 {m}

FenestrationSurface:Detailed,
  Sub Surface 14,                         !- Name
  Window,                                 !- Surface Type
  Roma_WindowsBestCase,                   !- Construction Name
  Surface 16,                             !- Building Surface Name
  ,                                       !- Outside Boundary Condition Object
  ,                                       !- View Factor to Ground
  ,                                       !- Frame and Divider Name
  ,                                       !- Multiplier
  ,                                       !- Number of Vertices
  -4.51645050884227, 9.12974136386499, 2.41597164304703, !- X,Y,Z Vertex 1 {m}
  -4.51645050884227, 9.12974136386499, 0.76, !- X,Y,Z Vertex 2 {m}
  -5.72388067184751, 9.9365204055645, 0.76, !- X,Y,Z Vertex 3 {m}
  -5.72388067184751, 9.9365204055645, 2.41597164304703; !- X,Y,Z Vertex 4 {m}

BuildingSurface:Detailed,
  Surface 17,                             !- Name
  Wall,                                   !- Surface Type
  Roma_WallBestCase,                      !- Construction Name
  Thermal Zone 1,                         !- Zone Name
  Outdoors,                               !- Outside Boundary Condition
  ,                                       !- Outside Boundary Condition Object
  SunExposed,                             !- Sun Exposure
  WindExposed,                            !- Wind Exposure
  ,                                       !- View Factor to Ground
  ,                                       !- Number of Vertices
  -3.36534308416657, 8.12465691583343, 4, !- X,Y,Z Vertex 1 {m}
  -3.36534308416657, 8.12465691583343, 0, !- X,Y,Z Vertex 2 {m}
  -4.49533118068979, 9.11562987994629, 0, !- X,Y,Z Vertex 3 {m}
  -4.49533118068979, 9.11562987994629, 4; !- X,Y,Z Vertex 4 {m}

FenestrationSurface:Detailed,
  Sub Surface 13,                         !- Name
  Window,                                 !- Surface Type
  Roma_WindowsBestCase,                   !- Construction Name
  Surface 17,                             !- Building Surface Name
  ,                                       !- Outside Boundary Condition Object
  ,                                       !- View Factor to Ground
  ,                                       !- Frame and Divider Name
  ,                                       !- Multiplier
  ,                                       !- Number of Vertices
  -3.38443981527653, 8.14140429953698, 2.41597164304703, !- X,Y,Z Vertex 1 {m}
  -3.38443981527653, 8.14140429953698, 0.76, !- X,Y,Z Vertex 2 {m}
  -4.47623444957981, 9.09888249624276, 0.76, !- X,Y,Z Vertex 3 {m}
  -4.47623444957981, 9.09888249624276, 2.41597164304703; !- X,Y,Z Vertex 4 {m}

BuildingSurface:Detailed,
  Surface 18,                             !- Name
  Wall,                                   !- Surface Type
  Roma_WallBestCase,                      !- Construction Name
  Thermal Zone 1,                         !- Zone Name
  Outdoors,                               !- Outside Boundary Condition
  ,                                       !- Outside Boundary Condition Object
  SunExposed,                             !- Sun Exposure
  WindExposed,                            !- Wind Exposure
  ,                                       !- View Factor to Ground
  ,                                       !- Number of Vertices
  -2.37437012005371, 6.9946688193102, 4,  !- X,Y,Z Vertex 1 {m}
  -2.37437012005371, 6.9946688193102, 0,  !- X,Y,Z Vertex 2 {m}
  -3.36534308416657, 8.12465691583343, 0, !- X,Y,Z Vertex 3 {m}
  -3.36534308416657, 8.12465691583343, 4; !- X,Y,Z Vertex 4 {m}

FenestrationSurface:Detailed,
  Sub Surface 12,                         !- Name
  Window,                                 !- Surface Type
  Roma_WindowsBestCase,                   !- Construction Name
  Surface 18,                             !- Building Surface Name
  ,                                       !- Outside Boundary Condition Object
  ,                                       !- View Factor to Ground
  ,                                       !- Frame and Divider Name
  ,                                       !- Multiplier
  ,                                       !- Number of Vertices
  -2.39111750375725, 7.01376555042017, 2.41597164304703, !- X,Y,Z Vertex 1 {m}
  -2.39111750375725, 7.01376555042017, 0.76, !- X,Y,Z Vertex 2 {m}
  -3.34859570046303, 8.10556018472346, 0.76, !- X,Y,Z Vertex 3 {m}
  -3.34859570046303, 8.10556018472346, 2.41597164304703; !- X,Y,Z Vertex 4 {m}

BuildingSurface:Detailed,
  Surface 19,                             !- Name
  Wall,                                   !- Surface Type
  Roma_WallBestCase,                      !- Construction Name
  Thermal Zone 1,                         !- Zone Name
  Outdoors,                               !- Outside Boundary Condition
  ,                                       !- Outside Boundary Condition Object
  SunExposed,                             !- Sun Exposure
  WindExposed,                            !- Wind Exposure
  ,                                       !- View Factor to Ground
  ,                                       !- Number of Vertices
  -1.5393681105168, 5.745, 4,             !- X,Y,Z Vertex 1 {m}
  -1.5393681105168, 5.745, 0,             !- X,Y,Z Vertex 2 {m}
  -2.37437012005371, 6.9946688193102, 0,  !- X,Y,Z Vertex 3 {m}
  -2.37437012005371, 6.9946688193102, 4;  !- X,Y,Z Vertex 4 {m}

FenestrationSurface:Detailed,
  Sub Surface 11,                         !- Name
  Window,                                 !- Surface Type
  Roma_WindowsBestCase,                   !- Construction Name
  Surface 19,                             !- Building Surface Name
  ,                                       !- Outside Boundary Condition Object
  ,                                       !- View Factor to Ground
  ,                                       !- Frame and Divider Name
  ,                                       !- Multiplier
  ,                                       !- Number of Vertices
  -1.5534795944355, 5.76611932815248, 2.41597164304703, !- X,Y,Z Vertex 1 {m}
  -1.5534795944355, 5.76611932815248, 0.76, !- X,Y,Z Vertex 2 {m}
  -2.36025863613501, 6.97354949115771, 0.76, !- X,Y,Z Vertex 3 {m}
  -2.36025863613501, 6.97354949115771, 2.41597164304703; !- X,Y,Z Vertex 4 {m}

BuildingSurface:Detailed,
  Surface 20,                             !- Name
  Wall,                                   !- Surface Type
  Roma_WallBestCase,                      !- Construction Name
  Thermal Zone 1,                         !- Zone Name
  Outdoors,                               !- Outside Boundary Condition
  ,                                       !- Outside Boundary Condition Object